/*--------------------------------*- C++ -*----------------------------------*\
| =========                 |                                                 |
| \\      /  F ield         | OpenFOAM: The Open Source CFD Toolbox           |
|  \\    /   O peration     | Version:  2112                                  |
|   \\  /    A nd           | Website:  www.openfoam.com                      |
|    \\/     M anipulation  |                                                 |
\*---------------------------------------------------------------------------*/
FoamFile
{
    version     2.0;
    format      ascii;
    arch        "LSB;label=32;scalar=64";
    class       volScalarField;
    location    "0";
    object      epsilon;
}
// * * * * * * * * * * * * * * * * * * * * * * * * * * * * * * * * * * * * * //

dimensions      [0 2 -3 0 0 0 0];

internalField   uniform 0.1;

boundaryField
{
    atmosphere
    {
        type            inletOutlet;
        inletValue      uniform 0.1;
        value           uniform 0.1;
    }
    domain_walls
    {
        type            epsilonWallFunction;
        value           uniform 0.1;
    }
    domain_valley
    {
        type            epsilonWallFunction;
        value           uniform 0.1;
    }
    west1
    {
        type            epsilonWallFunction;
        value           uniform 0.1;
    }
    east1
    {
        type            epsilonWallFunction;
        value           uniform 0.1;
    }
    DamBaffle
    {
        type            epsilonWallFunction;
        value           uniform 0.1;
    }
    cyclic
    {
        type            cyclic;
    }
}


// ************************************************************************* //
